This is a joke!
This is another joke!
Here's a third joke.
New line.
BLBLBLBLBLBL
C'est quoi la difference entre un mamifère et un oiseau? L'oiseau peut etre chouette.
